%nproc=8
%mem=24000mb
%chk=Wat20.Smp01ch3o.Try05_retry_optfreq_4_equilibration_2_10k.chk
#p wb97xd/6-311+(d,p) NoSymm BOMD(Sample=Microcanonical,StepSize=1000,MaxPoints=4000,GradientOnly,ReadVelocity)
scf=(xqc,maxconv=60)

RE:

0 2
O       -1.321834   0.209902    1.256936    
H       -0.98019    0.522163    0.391167    
H       -0.860511   0.726632    1.943849    
O       0.038661    3.797899    1.13362     
H       -0.87266    3.66928     0.808789    
H       0.633875    3.523793    0.42114     
O       4.575127    0.04551     0.085249    
H       4.285756    -0.875309   0.019523    
H       4.055991    0.423112    0.812043    
O       -3.493353   -1.237657   0.181221    
H       -3.615106   -2.028205   0.736333    
H       -2.866322   -0.683592   0.672214    
O       2.349207    0.752751    1.648539    
H       2.21337     -0.214553   1.761253    
H       1.793507    1.173587    2.323369    
O       1.691961    2.210193    -0.569355   
H       2.40306     2.120886    -1.224773   
H       1.962467    1.643156    0.185353    
O       -2.908871   2.259297    -2.099864   
H       -3.112159   2.861615    -2.81603    
H       -3.535233   1.494445    -2.17378    
O       0.167035    1.89709     2.943291    
H       -0.020419   2.179526    3.838981    
H       0.135906    2.704965    2.363433    
O       -0.11922    -1.295587   -2.595833   
H       -1.017595   -1.622581   -2.790231   
H       -0.272397   -0.448666   -2.129236   
O       -3.082864   -3.54368    1.649032    
H       -2.146256   -3.272869   1.767225    
H       -3.396187   -3.85828    2.497104    
O       -0.59137    1.011999    -1.236579   
H       0.224624    1.547291    -1.114373   
H       -1.28281    1.566595    -1.639851   
O       -2.737501   -2.116508   -2.384737   
H       -2.896121   -3.073069   -2.461113   
H       -2.861998   -1.911104   -1.439834   
O       2.187367    -1.928426   1.882811    
H       2.541384    -2.295313   1.061443    
H       1.275525    -2.252649   1.953988    
O       0.497277    -3.270295   -0.812388   
H       0.313433    -2.565262   -1.468743   
H       1.459868    -3.303133   -0.748214   
O       -2.554539   3.014688    0.580352    
H       -2.80762    2.869286    -0.345577   
H       -2.552434   2.1361      0.973151    
O       3.789311    1.257508    -2.157221   
H       4.211297    0.850371    -1.361731   
H       4.481287    1.699544    -2.650397   
O       -0.58763    -2.497507   1.548322    
H       -0.803832   -1.551376   1.448794    
H       -0.268331   -2.791723   0.667157    
O       3.360333    -2.549973   -0.67103    
H       4.017316    -3.211773   -0.893579   
H       3.127433    -2.076158   -1.516243   
O       -4.465221   0.108115    -2.130123   
H       -4.479873   -0.233819   -1.223735   
H       -4.043751   -0.615656   -2.61713    
O       2.655311    -1.241504   -2.841028   
H       2.943552    -0.315541   -2.803137   
H       1.695322    -1.244712   -2.991485   
O       -2.949018   -4.915286   -2.173355   
C       -2.217821   -5.277091   -1.085426   
H       -2.707258   -4.83031    -0.193319   
H       -2.133637   -6.362316   -0.956517   
H       -1.228829   -4.78434    -1.10209    

 0 

542855598853.4487     2951599710559.785     -4505373546644.629    
-2261654862768.8223   -499741710687.6225    -4472518111307.178    
969528068284.857      -596780753194.4966    -799703880577.8947    
3189220063724.8306    1880915574793.6157    3603695252403.653     
-544999905661.9004    566007479653.4437     -237777896346.7654    
2920797401922.3335    1737980156875.0117    -2315956925662.377    
800157021462.3768     -1925112277042.93     1986786117561.7217    
-217376564191.8171    -2226507740446.353    4128552009984.085     
-3406271204160.3994   1756339142504.1235    4149230354356.735     
1472316646591.0461    -197809615555.1153    -631614147210.8793    
-927438111589.6625    -1760701551925.0554   3930379758712.523     
2272827338862.4995    -3279777673356.6396   3151261211423.4946    
-1963129745013.5686   -709636660390.0479    789629141967.9111     
595248758375.554      1645781978696.1523    -1282330725805.2344   
93706078896.7601      -1283058925151.1123   1163348053233.9456    
-2187946933242.9355   -1371628349345.5896   1291515109349.061     
2858274730949.476     2454737702470.574     -2108128376495.5864   
60322813092.4676      449242352264.4266     3346812686175.981     
-3705864488060.3745   -1664168108361.2974   4629070944685.227     
-114757488359.1935    -3376258584187.901    -987848340986.1997    
-4658062331829.561    -3596781346927.09     2801162966941.4907    
1611528911173.3662    -2929890495220.781    1978574802740.5837    
-530420530395.8055    252750832146.0272     302834812944.4103     
2199732464235.3145    -1296289286722.7722   -3068315465628.973    
-2013803559007.9304   399423107237.3002     2911860822966.4346    
-407019501362.6625    -369694550136.547     -3718550572539.522    
2643269252427.224     3079323570441.341     3431312384759.0293    
-3012369760660.709    -1908984261995.7754   -2628351381310.053    
155611429821.4394     295605924257.1934     -4235843818245.6587   
1179922277108.292     288525573581.2966     2687825776984.135     
287838315253.3414     -755817231525.3073    -698452378637.8762    
1833792811387.0464    232969625936.5476     -638433665635.8639    
4364908706532.663     -642746951361.2002    -552627058135.5654    
3768205326131.1167    1699533367954.6086    -1156669996212.213    
135242757710.3408     -770532362404.7034    -619767149559.6752    
3851272081677.22      194303125569.0192     5222978465533.359     
647548091732.7897     -1032161864476.2189   2324096171224.7573    
1158498687664.0876    247137770460.6115     3069703597831.7217    
-2216584358761.588    -1680684746342.0554   3393374655127.412     
2182897105452.9878    -684339923051.7695    3252200316338.823     
-2675190910666.197    -3349481039246.7437   1043128548738.2346    
33097916376.7832      -1453035511181.9194   -1807953080360.5737   
962716876132.2089     -179405657325.6732    -1774139458574.0454   
4625656972849.698     -1967033095023.037    -606562266352.0609    
-13265372867.1517     -1588733337515.1812   -3255045468812.063    
-37189670529.6113     1072809070716.2325    1054276772732.7697    
3067859267034.676     -741494767602.6124    2828016492836.507     
-275620046723.5012    -194067956996.9667    -494159944752.5558    
-2637106898696.651    139135046422.8431     -3625223857434.7314   
2163875612346.6196    2529497739582.9854    -4175379482108.2944   
-1376782917563.3076   -2429741357726.4688   498331463612.983      
-1840161996229.7449   2705187288106.212     -1121651744830.9775   
-1721042792248.1755   2009789257856.279     4273909523711.0933    
1694472905768.4717    2455696960265.3276    -4835773237053.561    
2981037275506.144     -220037408248.7401    3083744600288.384     
-944686675152.2013    -969931168866.268     1584021853991.8713    
-2849015112263.6426   -820060551465.7749    -5064381907085.817    
-2465893281673.06     38793069445.3427      -1664258334905.8274   
-1361095790069.2695   -219916526314.1125    1436013028426.487     
3690904237500.8354    -1190744591474.0608   4201533002483.2285    
125624787250.6907     -2256238827482.042    -2419799235509.0557   
-263467114854.7039    219878513034.8687     5041690137431.457     
3284731833782.0845    -998981127397.8588    -210021633482.3282    
-1739529699667.7214   -1897081267883.8286   -2586391692052.918    
-1347385239651.453    479300336525.3701     3195036573966.709     




